* A model with no clear license markers and no telltale path.
.model MYSTERY NPN (BF=100)
